            TRNSYS - the TRaNsient SYstem Simulation program

   The Solar Energy Lab at the University of Wisconsin - Madison, USA
Le Centre Scientifique et Technique du Batiment, Sophia Antipolis, France
           Transsolar Energietechnik GmBH, Stuttgart, Germany
        Thermal Energy System Specialists, LLC, Madison Wisconsin, USA

                           Release 18.04.0000
                           User ID  18-E0116

Listing file for: "E:\SIM_FILES\TACR_REGULUS\testbed_v11+SIM_v2\testbed_v11\DefaultBuilding_imported.dck"
 
*** Notice at time        :         0.000000
    Generated by Unit     : Not applicable or not available
    Generated by Type     : Not applicable or not available
    Message               : The TRNSYS Executable (TRNExe.exe) and main DLL (TRNDll.dll) are located in "C:\TRNSYS18\Exe"
 

 *** Pre-Processing the TRNSYS EQUATIONs and CONSTANTs to check for fatal errors.

 *** Pre-Processing of EQUATIONs and CONSTANTs completed with no fatal errors found.

 *** Evaluating the EQUATIONs and CONSTANTs to determine their initial values.

 *** Finished evaluating the EQUATIONs and CONSTANTs and ready to begin processing the remainder of the TRNSYS input file.

  VERSION        18
*******************************************************************************                                                                                                                                                                                                                                                                                                                                                                                                                                                                                                                                                                                                                                                                                                                                                                                                                                                                                                                                                         
*** TRNSYS input file (deck) generated by TrnsysStudio                                                                                                                                                                                                                                                                                                                                                                                                                                                                                                                                                                                                                                                                                                                                                                                                                                                                                                                                                                                  
*** on sobota, zברם 16, 2023 at 11:23                                                                                                                                                                                                                                                                                                                                                                                                                                                                                                                                                                                                                                                                                                                                                                                                                                                                                                                                                                                                   
*** from TrnsysStudio project: E:\SIM_FILES\TACR_REGULUS\testbed_v11+SIM_v2\testbed_v11\DefaultBuilding_imported.tpf                                                                                                                                                                                                                                                                                                                                                                                                                                                                                                                                                                                                                                                                                                                                                                                                                                                                                                                    
***                                                                                                                                                                                                                                                                                                                                                                                                                                                                                                                                                                                                                                                                                                                                                                                                                                                                                                                                                                                                                                     
*** If you edit this file, use the File/Import TRNSYS Input File function in                                                                                                                                                                                                                                                                                                                                                                                                                                                                                                                                                                                                                                                                                                                                                                                                                                                                                                                                                            
*** TrnsysStudio to update the project.                                                                                                                                                                                                                                                                                                                                                                                                                                                                                                                                                                                                                                                                                                                                                                                                                                                                                                                                                                                                 
***                                                                                                                                                                                                                                                                                                                                                                                                                                                                                                                                                                                                                                                                                                                                                                                                                                                                                                                                                                                                                                     
*** If you have problems, questions or suggestions please contact your local                                                                                                                                                                                                                                                                                                                                                                                                                                                                                                                                                                                                                                                                                                                                                                                                                                                                                                                                                            
*** TRNSYS distributor or mailto:software@cstb.fr                                                                                                                                                                                                                                                                                                                                                                                                                                                                                                                                                                                                                                                                                                                                                                                                                                                                                                                                                                                       
***                                                                                                                                                                                                                                                                                                                                                                                                                                                                                                                                                                                                                                                                                                                                                                                                                                                                                                                                                                                                                                     
*******************************************************************************                                                                                                                                                                                                                                                                                                                                                                                                                                                                                                                                                                                                                                                                                                                                                                                                                                                                                                                                                         
*******************************************************************************                                                                                                                                                                                                                                                                                                                                                                                                                                                                                                                                                                                                                                                                                                                                                                                                                                                                                                                                                         
*** Units                                                                                                                                                                                                                                                                                                                                                                                                                                                                                                                                                                                                                                                                                                                                                                                                                                                                                                                                                                                                                               
*******************************************************************************                                                                                                                                                                                                                                                                                                                                                                                                                                                                                                                                                                                                                                                                                                                                                                                                                                                                                                                                                         
*******************************************************************************                                                                                                                                                                                                                                                                                                                                                                                                                                                                                                                                                                                                                                                                                                                                                                                                                                                                                                                                                         
*** Control cards                                                                                                                                                                                                                                                                                                                                                                                                                                                                                                                                                                                                                                                                                                                                                                                                                                                                                                                                                                                                                       
*******************************************************************************                                                                                                                                                                                                                                                                                                                                                                                                                                                                                                                                                                                                                                                                                                                                                                                                                                                                                                                                                         
* START, STOP and STEP                                                                                                                                                                                                                                                                                                                                                                                                                                                                                                                                                                                                                                                                                                                                                                                                                                                                                                                                                                                                                  

  CONSTANTS   3
     START=0
     STOP=8760
     STEP=5/60
! Start time	End time	Time step                                                                                                                                                                                                                                                                                                                                                                                                                                                                                                                                                                                                                                                                                                                                                                                                                                                                                                                                                                          

  SIMULATION         0.0000000000000000E+00    8.7600000000000000E+03    8.3333333333333329E-02
! Integration	 Convergence                                                                                                                                                                                                                                                                                                                                                                                                                                                                                                                                                                                                                                                                                                                                                                                                                                                                                                                                                                                     

  TOLERANCES         1.0000000000000002E-03    1.0000000000000002E-03
! Max iterations	Max warnings	Trace limit                                                                                                                                                                                                                                                                                                                                                                                                                                                                                                                                                                                                                                                                                                                                                                                                                                                                                                                                                                         

  LIMITS        30     10000        31
! TRNSYS numerical integration solver method                                                                                                                                                                                                                                                                                                                                                                                                                                                                                                                                                                                                                                                                                                                                                                                                                                                                                                                                                                                  

  DFQ   1
! TRNSYS output file width, number of characters                                                                                                                                                                                                                                                                                                                                                                                                                                                                                                                                                                                                                                                                                                                                                                                                                                                                                                                                                                            

  WIDTH    80
! NOLIST statement                                                                                                                                                                                                                                                                                                                                                                                                                                                                                                                                                                                                                                                                                                                                                                                                                                                                                                                                                                                                            

  LIST
! MAP statement                                                                                                                                                                                                                                                                                                                                                                                                                                                                                                                                                                                                                                                                                                                                                                                                                                                                                                                                                                                                                    
! Solver statement	Minimum relaxation factor	Maximum relaxation factor                                                                                                                                                                                                                                                                                                                                                                                                                                                                                                                                                                                                                                                                                                                                                                                                                                                                                                                                                  

  SOLVER  0
    1.000000000000000    
    1.000000000000000    
! Nan DEBUG statement                                                                                                                                                                                                                                                                                                                                                                                                                                                                                                                                                                                                                                                                                                                                                                                                                                                                                                                                                                                                    

  NAN_CHECK   0
! Overwrite DEBUG statement                                                                                                                                                                                                                                                                                                                                                                                                                                                                                                                                                                                                                                                                                                                                                                                                                                                                                                                                                                                         

  OVERWRITE_CHECK   0
! disable time report                                                                                                                                                                                                                                                                                                                                                                                                                                                                                                                                                                                                                                                                                                                                                                                                                                                                                                                                                                                                   

  TIME_REPORT   0
! EQUATION SOLVER statement                                                                                                                                                                                                                                                                                                                                                                                                                                                                                                                                                                                                                                                                                                                                                                                                                                                                                                                                                                                               

  EQUATION SOLVING METHOD         0
* User defined CONSTANTS                                                                                                                                                                                                                                                                                                                                                                                                                                                                                                                                                                                                                                                                                                                                                                                                                                                                                                                                                                                                                
*$USER_CONSTANTS                                                                                                                                                                                                                                                                                                                                                                                                                                                                                                                                                                                                                                                                                                                                                                                                                                                                                                                                                                                                                        
*$USER_CONSTANTS_END                                                                                                                                                                                                                                                                                                                                                                                                                                                                                                                                                                                                                                                                                                                                                                                                                                                                                                                                                                                                                    
* EQUATIONS "Wizard Settings"                                                                                                                                                                                                                                                                                                                                                                                                                                                                                                                                                                                                                                                                                                                                                                                                                                                                                                                                                                                                           
*                                                                                                                                                                                                                                                                                                                                                                                                                                                                                                                                                                                                                                                                                                                                                                                                                                                                                                                                                                                                                                       

  EQUATIONS  12
! hemisphere of weather data location (northern hemisphere: 1, southern hemisphere: -1)                                                                                                                                                                                                                                                                                                                                                                                                                                                                                                                                                                                                                                                                                                                                                                                                                                                                                                                             
     HEMISPHERE = 1
! rotation angle of scene (building & shaders) used for adapting azimuth angles                                                                                                                                                                                                                                                                                                                                                                                                                                                                                                                                                                                                                                                                                                                                                                                                                                                                                                                              
     TURN = HEMISPHERE * 0
! boundary temperature of surfaces (used by Type 56 - Multizone Building Model)                                                                                                                                                                                                                                                                                                                                                                                                                                                                                                                                                                                                                                                                                                                                                                                                                                                                                                                                     
     TBOUNDARY = 20
! Close blinds - radiation on facade in [W/m2 * 3.6]=[kJ/hr] (used by Type 56 - Multizone Building Model)                                                                                                                                                                                                                                                                                                                                                                                                                                                                                                                                                                                                                                                                                                                                                                                                                                                                                                  
     SHADE_CLOSE = 140 * 3.6
! Open blinds - radiation on facade in [W/m2 * 3.6]=[kJ/hr] (used by Type 56 - Multizone Building Model)                                                                                                                                                                                                                                                                                                                                                                                                                                                                                                                                                                                                                                                                                                                                                                                                                                                                                                    
     SHADE_OPEN = 120 * 3.6
! Maximum opaque fraction of internal shading device (used by Type 56 - Multizone Building Model)                                                                                                                                                                                                                                                                                                                                                                                                                                                                                                                                                                                                                                                                                                                                                                                                                                                                                                              
     MAX_ISHADE = 70/100
! Maximum opaque fraction of external shading device (used by Type 56 - Multizone Building Model)                                                                                                                                                                                                                                                                                                                                                                                                                                                                                                                                                                                                                                                                                                                                                                                                                                                                                                              
     MAX_ESHADE = 70/100
! ground temperature depth [m](used by Type 77 - Simple Ground Temperature Model)                                                                                                                                                                                                                                                                                                                                                                                                                                                                                                                                                                                                                                                                                                                                                                                                                                                                                                                                      
     h_DEPTH = 1
! mean annual ambient temperaure [C] (used by Type 77 - Simple Ground Temperature Model)                                                                                                                                                                                                                                                                                                                                                                                                                                                                                                                                                                                                                                                                                                                                                                                                                                                                                                                            
     T_MEAN = 7.9
! max. annual amplitude of ambient temperature [C] (used by Type 77 - Simple Ground Temperature Model)                                                                                                                                                                                                                                                                                                                                                                                                                                                                                                                                                                                                                                                                                                                                                                                                                                                                                                           
     T_AMPLITUDE = 9.7
! time shift of min. annual temperature [C] (used by Type 77 - Simple Ground Temperature Model)                                                                                                                                                                                                                                                                                                                                                                                                                                                                                                                                                                                                                                                                                                                                                                                                                                                                                                                       
     t_T_MIN = 14
! wind direction corrected by scene rotation angle (0...360 deg)                                                                                                                                                                                                                                                                                                                                                                                                                                                                                                                                                                                                                                                                                                                                                                                                                                                                                    
     WindDir = MOD([15,9]+TURN/HEMISPHERE,360) + LT([15,9]+TURN/HEMISPHERE,0)*(360)
*$UNIT_NAME Wizard Settings                                                                                                                                                                                                                                                                                                                                                                                                                                                                                                                                                                                                                                                                                                                                                                                                                                                                                                                                                                                                             
*$LAYER Main                                                                                                                                                                                                                                                                                                                                                                                                                                                                                                                                                                                                                                                                                                                                                                                                                                                                                                                                                                                                                            
*$POSITION 83 338                                                                                                                                                                                                                                                                                                                                                                                                                                                                                                                                                                                                                                                                                                                                                                                                                                                                                                                                                                                                                       
*$UNIT_NUMBER 1                                                                                                                                                                                                                                                                                                                                                                                                                                                                                                                                                                                                                                                                                                                                                                                                                                                                                                                                                                                                                         
*------------------------------------------------------------------------------                                                                                                                                                                                                                                                                                                                                                                                                                                                                                                                                                                                                                                                                                                                                                                                                                                                                                                                                                         
* EQUATIONS "Radiation Unit Converter"                                                                                                                                                                                                                                                                                                                                                                                                                                                                                                                                                                                                                                                                                                                                                                                                                                                                                                                                                                                                  
*                                                                                                                                                                                                                                                                                                                                                                                                                                                                                                                                                                                                                                                                                                                                                                                                                                                                                                                                                                                                                                       

  EQUATIONS  23
! [deg] solar zenith angle                                                                                                                                                                                                                                                                                                                                                                                                                                                                                                                                                                                                                                                                                                                                                                                                                                                                                                                                                                                               
     AZEN = [15,16]
! [deg] solar azimuth angle                                                                                                                                                                                                                                                                                                                                                                                                                                                                                                                                                                                                                                                                                                                                                                                                                                                                                                                                                                                              
     AAZM = [15,17]
! [deg] solar azimuth corrected by building rotation - Input for Type 56 sun position for SHM and ISM                                                                                                                                                                                                                                                                                                                                                                                                                                                                                                                                                                                                                                                                                                                                                                                                                                                                                                       
     AAZM_TYPE56 = AAZM - (TURN)
! [deg] azimuth angle of orientation                                                                                                                                                                                                                                                                                                                                                                                                                                                                                                                                                                                                                                                                                                                                                                                                                                                                                                                                                                                
     AA_H_0_0 = 0 + TURN
! [deg] azimuth angle of orientation                                                                                                                                                                                                                                                                                                                                                                                                                                                                                                                                                                                                                                                                                                                                                                                                                                                                                                                                                                               
     AA_S_0_90 = 0 + TURN
! [deg] azimuth angle of orientation                                                                                                                                                                                                                                                                                                                                                                                                                                                                                                                                                                                                                                                                                                                                                                                                                                                                                                                                                                             
     AA_W_90_90 = 90 + TURN
! [deg] azimuth angle of orientation                                                                                                                                                                                                                                                                                                                                                                                                                                                                                                                                                                                                                                                                                                                                                                                                                                                                                                                                                                           
     AA_N_180_90 = 180 + TURN
! [deg] azimuth angle of orientation                                                                                                                                                                                                                                                                                                                                                                                                                                                                                                                                                                                                                                                                                                                                                                                                                                                                                                                                                                           
     AA_E_270_90 = 270 + TURN
     IT_H_0_0 = [15,24]/3.6
     IB_H_0_0 = [15,30]/3.6
     AI_H_0_0 = [15,54]
     IT_S_0_90 = [15,25]/3.6
     IB_S_0_90 = [15,31]/3.6
     AI_S_0_90 = [15,55]
     IT_W_90_90 = [15,26]/3.6
     IB_W_90_90 = [15,32]/3.6
     AI_W_90_90 = [15,56]
     IT_N_180_90 = [15,27]/3.6
     IB_N_180_90 = [15,33]/3.6
     AI_N_180_90 = [15,57]
     IT_E_270_90 = [15,28]/3.6
     IB_E_270_90 = [15,34]/3.6
     AI_E_270_90 = [15,58]
*$UNIT_NAME Radiation Unit Converter                                                                                                                                                                                                                                                                                                                                                                                                                                                                                                                                                                                                                                                                                                                                                                                                                                                                                                                                                                                                    
*$LAYER Main                                                                                                                                                                                                                                                                                                                                                                                                                                                                                                                                                                                                                                                                                                                                                                                                                                                                                                                                                                                                                            
*$POSITION 248 346                                                                                                                                                                                                                                                                                                                                                                                                                                                                                                                                                                                                                                                                                                                                                                                                                                                                                                                                                                                                                      
*$UNIT_NUMBER 2                                                                                                                                                                                                                                                                                                                                                                                                                                                                                                                                                                                                                                                                                                                                                                                                                                                                                                                                                                                                                         
*------------------------------------------------------------------------------                                                                                                                                                                                                                                                                                                                                                                                                                                                                                                                                                                                                                                                                                                                                                                                                                                                                                                                                                         
* Model "Weather" (Type 15)                                                                                                                                                                                                                                                                                                                                                                                                                                                                                                                                                                                                                                                                                                                                                                                                                                                                                                                                                                                                             
*                                                                                                                                                                                                                                                                                                                                                                                                                                                                                                                                                                                                                                                                                                                                                                                                                                                                                                                                                                                                                                       

  UNIT   15     TYPE   15     Weather                                       
*$UNIT_NAME Weather                                                                                                                                                                                                                                                                                                                                                                                                                                                                                                                                                                                                                                                                                                                                                                                                                                                                                                                                                                                                                     
*$MODEL .\Weather Data Reading and Processing\Standard Format\Meteonorm Files (TM2)\Type15-6.tmf                                                                                                                                                                                                                                                                                                                                                                                                                                                                                                                                                                                                                                                                                                                                                                                                                                                                                                                                        
*$POSITION 70 466                                                                                                                                                                                                                                                                                                                                                                                                                                                                                                                                                                                                                                                                                                                                                                                                                                                                                                                                                                                                                       
*$LAYER Weather - Data Files # #                                                                                                                                                                                                                                                                                                                                                                                                                                                                                                                                                                                                                                                                                                                                                                                                                                                                                                                                                                                                        
       PARAMETERS  24
! 1 File Type                                                                                                                                                                                                                                                                                                                                                                                                                                                                                                                                                                                                                                                                                                                                                                                                                                                                                                                                                                                                                        
! 2 Logical unit                                                                                                                                                                                                                                                                                                                                                                                                                                                                                                                                                                                                                                                                                                                                                                                                                                                                                                                                                                                                                    
! 3 Tilted Surface Radiation Mode                                                                                                                                                                                                                                                                                                                                                                                                                                                                                                                                                                                                                                                                                                                                                                                                                                                                                                                                                                                                    
[...]
    Message               : Shading mask file *.shm  for external windows exists and will be used.
 
 
*** Notice at time        :         0.000000
    Generated by Unit     :    56
    Generated by Type     :    56
    Message               : Insolation mask file *.ism of zone 001 exists and will be used.
 
 
*** Notice at time        :         0.000000
    Generated by Unit     :    56
    Generated by Type     :    56
    Message               : Insolation mask file *.ism of zone 002 exists and will be used.
 
 
*** Notice at time        :         0.000000
    Generated by Unit     :    56
    Generated by Type     :    56
    Message               : Insolation mask file *.ism of zone 003 exists and will be used.
 
 
*** Notice at time        :         0.000000
    Generated by Unit     :    56
    Generated by Type     :    56
    Message               : Star network calculation: every iteration step of TYPE 56
 
 
*** Notice at time        :         0.000000
    Generated by Unit     :    52
    Generated by Type     :   402
    Message               : Attention: since TRNSYS 17 the input and output order of position 1..4 has been changed!
 
 
*** Warning at time       :         0.000000
    Generated by Unit     :    69
    Generated by Type     :   103
    Message               : The 4-parameter PV model found a negative solution for the modules series resistance. The series resistance was set to zero. Please check manufacturers catalog values.
 
 
*** Warning at time       :         0.000000
    Generated by Unit     :    60
    Generated by Type     :  3157
    TRNSYS Message    315 : The TRNSYS processor has reported a potential problem with the connections in your input file. In version 16, there is a very specific calling order after convergence has been reached at each timestep. One of your connections flows against this calling order - for example you may have the output of an integrator connected as an input to a standard component (one that is being called iteratively at each timestep). While this is not technically an ERROR - it may cause incorrect values to be passed to the component. For example, the input to an iterating component from an integrator will be from the previously converged timestep and not the current timestep. Refer to the TRNSYS Manual - Volume 1 - for more information on the calling order for TRNSYS components
    Reported information  : ** Reported by Exec.f90
 
 
*** Warning at time       :         0.000000
    Generated by Unit     :    60
    Generated by Type     :  3157
    TRNSYS Message    315 : The TRNSYS processor has reported a potential problem with the connections in your input file. In version 16, there is a very specific calling order after convergence has been reached at each timestep. One of your connections flows against this calling order - for example you may have the output of an integrator connected as an input to a standard component (one that is being called iteratively at each timestep). While this is not technically an ERROR - it may cause incorrect values to be passed to the component. For example, the input to an iterating component from an integrator will be from the previously converged timestep and not the current timestep. Refer to the TRNSYS Manual - Volume 1 - for more information on the calling order for TRNSYS components
    Reported information  : ** Reported by Exec.f90
 
 
*** Warning at time       :         0.000000
    Generated by Unit     :    60
    Generated by Type     :  3157
    TRNSYS Message    315 : The TRNSYS processor has reported a potential problem with the connections in your input file. In version 16, there is a very specific calling order after convergence has been reached at each timestep. One of your connections flows against this calling order - for example you may have the output of an integrator connected as an input to a standard component (one that is being called iteratively at each timestep). While this is not technically an ERROR - it may cause incorrect values to be passed to the component. For example, the input to an iterating component from an integrator will be from the previously converged timestep and not the current timestep. Refer to the TRNSYS Manual - Volume 1 - for more information on the calling order for TRNSYS components
    Reported information  : ** Reported by Exec.f90
 
 
*** Warning at time       :         0.000000
    Generated by Unit     :    60
    Generated by Type     :  3157
    TRNSYS Message    315 : The TRNSYS processor has reported a potential problem with the connections in your input file. In version 16, there is a very specific calling order after convergence has been reached at each timestep. One of your connections flows against this calling order - for example you may have the output of an integrator connected as an input to a standard component (one that is being called iteratively at each timestep). While this is not technically an ERROR - it may cause incorrect values to be passed to the component. For example, the input to an iterating component from an integrator will be from the previously converged timestep and not the current timestep. Refer to the TRNSYS Manual - Volume 1 - for more information on the calling order for TRNSYS components
    Reported information  : ** Reported by Exec.f90
 
 
*** Warning at time       :         0.000000
    Generated by Unit     :    60
    Generated by Type     :  3157
    TRNSYS Message    315 : The TRNSYS processor has reported a potential problem with the connections in your input file. In version 16, there is a very specific calling order after convergence has been reached at each timestep. One of your connections flows against this calling order - for example you may have the output of an integrator connected as an input to a standard component (one that is being called iteratively at each timestep). While this is not technically an ERROR - it may cause incorrect values to be passed to the component. For example, the input to an iterating component from an integrator will be from the previously converged timestep and not the current timestep. Refer to the TRNSYS Manual - Volume 1 - for more information on the calling order for TRNSYS components
    Reported information  : ** Reported by Exec.f90
 
 
*** Warning at time       :         0.000000
    Generated by Unit     :    60
    Generated by Type     :  3157
    TRNSYS Message    315 : The TRNSYS processor has reported a potential problem with the connections in your input file. In version 16, there is a very specific calling order after convergence has been reached at each timestep. One of your connections flows against this calling order - for example you may have the output of an integrator connected as an input to a standard component (one that is being called iteratively at each timestep). While this is not technically an ERROR - it may cause incorrect values to be passed to the component. For example, the input to an iterating component from an integrator will be from the previously converged timestep and not the current timestep. Refer to the TRNSYS Manual - Volume 1 - for more information on the calling order for TRNSYS components
    Reported information  : ** Reported by Exec.f90
 
 
*** Warning at time       :         0.000000
    Generated by Unit     :    60
    Generated by Type     :  3157
    TRNSYS Message    315 : The TRNSYS processor has reported a potential problem with the connections in your input file. In version 16, there is a very specific calling order after convergence has been reached at each timestep. One of your connections flows against this calling order - for example you may have the output of an integrator connected as an input to a standard component (one that is being called iteratively at each timestep). While this is not technically an ERROR - it may cause incorrect values to be passed to the component. For example, the input to an iterating component from an integrator will be from the previously converged timestep and not the current timestep. Refer to the TRNSYS Manual - Volume 1 - for more information on the calling order for TRNSYS components
    Reported information  : ** Reported by Exec.f90
 
 
*** Warning at time       :         0.000000
    Generated by Unit     :    60
    Generated by Type     :  3157
    TRNSYS Message    315 : The TRNSYS processor has reported a potential problem with the connections in your input file. In version 16, there is a very specific calling order after convergence has been reached at each timestep. One of your connections flows against this calling order - for example you may have the output of an integrator connected as an input to a standard component (one that is being called iteratively at each timestep). While this is not technically an ERROR - it may cause incorrect values to be passed to the component. For example, the input to an iterating component from an integrator will be from the previously converged timestep and not the current timestep. Refer to the TRNSYS Manual - Volume 1 - for more information on the calling order for TRNSYS components
    Reported information  : ** Reported by Exec.f90
 
 
*** Warning at time       :         0.000000
    Generated by Unit     :    60
    Generated by Type     :  3157
    TRNSYS Message    315 : The TRNSYS processor has reported a potential problem with the connections in your input file. In version 16, there is a very specific calling order after convergence has been reached at each timestep. One of your connections flows against this calling order - for example you may have the output of an integrator connected as an input to a standard component (one that is being called iteratively at each timestep). While this is not technically an ERROR - it may cause incorrect values to be passed to the component. For example, the input to an iterating component from an integrator will be from the previously converged timestep and not the current timestep. Refer to the TRNSYS Manual - Volume 1 - for more information on the calling order for TRNSYS components
    Reported information  : ** Reported by Exec.f90
 
 
*** Warning at time       :         0.000000
    Generated by Unit     :    60
    Generated by Type     :  3157
    TRNSYS Message    315 : The TRNSYS processor has reported a potential problem with the connections in your input file. In version 16, there is a very specific calling order after convergence has been reached at each timestep. One of your connections flows against this calling order - for example you may have the output of an integrator connected as an input to a standard component (one that is being called iteratively at each timestep). While this is not technically an ERROR - it may cause incorrect values to be passed to the component. For example, the input to an iterating component from an integrator will be from the previously converged timestep and not the current timestep. Refer to the TRNSYS Manual - Volume 1 - for more information on the calling order for TRNSYS components
    Reported information  : ** Reported by Exec.f90
 
 
*** Warning at time       :         0.000000
    Generated by Unit     :    60
    Generated by Type     :  3157
    TRNSYS Message    315 : The TRNSYS processor has reported a potential problem with the connections in your input file. In version 16, there is a very specific calling order after convergence has been reached at each timestep. One of your connections flows against this calling order - for example you may have the output of an integrator connected as an input to a standard component (one that is being called iteratively at each timestep). While this is not technically an ERROR - it may cause incorrect values to be passed to the component. For example, the input to an iterating component from an integrator will be from the previously converged timestep and not the current timestep. Refer to the TRNSYS Manual - Volume 1 - for more information on the calling order for TRNSYS components
    Reported information  : ** Reported by Exec.f90
 
 
*** Warning at time       :         0.000000
    Generated by Unit     :    60
    Generated by Type     :  3157
    TRNSYS Message    315 : The TRNSYS processor has reported a potential problem with the connections in your input file. In version 16, there is a very specific calling order after convergence has been reached at each timestep. One of your connections flows against this calling order - for example you may have the output of an integrator connected as an input to a standard component (one that is being called iteratively at each timestep). While this is not technically an ERROR - it may cause incorrect values to be passed to the component. For example, the input to an iterating component from an integrator will be from the previously converged timestep and not the current timestep. Refer to the TRNSYS Manual - Volume 1 - for more information on the calling order for TRNSYS components
    Reported information  : ** Reported by Exec.f90
 

*** The TRNSYS components will be called in the following order:
      Unit #   15   Type #   15
      Unit #   77   Type #   77
      Unit #   40   Type #    9
      Unit #   61   Type #    9
      Unit #   82   Type #   14
      Unit #   83   Type #   14
      Unit #   56   Type #   56
      Unit #   16   Type #   75
      Unit #   28   Type #  760
      Unit #   32   Type #  158
      Unit #   33   Type #   11
      Unit #   34   Type #  110
      Unit #   35   Type #   11
      Unit #   36   Type #   11
      Unit #   37   Type #  115
      Unit #   38   Type #   11
      Unit #   46   Type #   11
      Unit #   49   Type #  114
      Unit #   51   Type #   11
      Unit #   53   Type #  156
      Unit #   54   Type #  156
      Unit #   55   Type #   11
      Unit #   57   Type #   11
      Unit #   58   Type #  647
      Unit #   59   Type #  649
      Unit #   52   Type #  402
      Unit #   64   Type #  551
      Unit #   69   Type #  103
      Unit #   80   Type #   47
      Unit #   81   Type #   48
      Unit #   71   Type #   11
      Unit #   72   Type #   11
      Unit #   76   Type #  113
      Unit #   65   Type #   65
      Unit #   66   Type #   65
      Unit #   67   Type #   65
      Unit #   68   Type #   65
      Unit #   31   Type #   65
      Unit #   41   Type #   25
      Unit #   48   Type #   65
      Unit #   60   Type # 3157
 
*** Fatal Error at time   :      2274.000000
    Generated by Unit     :    56
    Generated by Type     :    56
    Message               : Error Shading matrix. Direct solar radiation surface   74 with orientation    4 is not zero. Please check the shading matrix file *.shm.
 
 
*** Fatal Error at time   :      2274.000000
    Generated by Unit     :    56
    Generated by Type     :    56
    Message               : Error Shading matrix. Direct solar radiation surface   74 with orientation    4 is not zero. Please check the shading matrix file *.shm.
 
 
*** Warning at time       :      2274.000000
    Generated by Unit     :    15
    Generated by Type     :    15
    Message               : The calculated horizontal diffuse radiation exceeded the horizontal extraterrestrial radiation and was set to the extraterrestrial for 11 timesteps during the simulation.
 
 
*** Warning at time       :      2274.000000
    Generated by Unit     :    15
    Generated by Type     :    15
    Message               : The total horizontal radiation calculated from the sum of the beam and diffuse horizontal radiation exceeded the horizontal extraterrestrial radiation and was set to the extraterrestrial. The beam and diffuse radiation on the horizontal were then calculated base on their original ratios for 15 timesteps during the simulation.
 
 
*** Notice at time        :      2274.000000
    Generated by Unit     :    56
    Generated by Type     :    56
    Message               : Information on surface condensation: Surface outputs ntype 48,49 for inside/outside surface(s) may be used for further investigation on time dependant behaviour!
 
 
*** Notice at time        :      2274.000000
    Generated by Unit     :    56
    Generated by Type     :    56
    Message               : Geometrical distribution factors for direct solar (GEOSURF) in zone    1 did not always sum up to unity. Normalized values were used for these timesteps!
 
 
*** Notice at time        :      2274.000000
    Generated by Unit     :    56
    Generated by Type     :    56
    Message               : Geometrical distribution factors for direct solar (GEOSURF) in zone    2 did not always sum up to unity. Normalized values were used for these timesteps!
 
 
*** Notice at time        :      2274.000000
    Generated by Unit     :    56
    Generated by Type     :    56
    Message               : Geometrical distribution factors for direct solar (GEOSURF) in zone    3 did not always sum up to unity. Normalized values were used for these timesteps!
 
 
*** Warning at time       :      2274.000000
    Generated by Unit     :    34
    Generated by Type     :   110
    Message               : Pump mass balance failed during 1 timesteps. Please check the connections.
 
 
*** Warning at time       :      2274.000000
    Generated by Unit     :    80
    Generated by Type     :    47
    Message               : The battery was given more power than it could take or was asked for more power than it could deliver during 3 timesteps (0% of the time). The battery is assumed to have been able to aquire/dump this power as needed so that the simulation could continue to run.
 
 
*** Warning at time       :      2274.000000
    Generated by Unit     :    76
    Generated by Type     :   113
    Message               : The controller was stuck during 0 percent of the time during the simulation.
 


*********************************************************************************************************
The Following UNIT Numbers, TYPE Numbers, and Logical Units Were Used in the Supplied TRNSYS Input File: 
                        15             9                 4
                        16            11                 6
                        28            14                 9
                        31            15                30
                        32            25                31
                        33            47                46
                        34            48                47
                        35            56                81
                        36            65                82
                        37            75                83
                        38            77                84
                        40           103                85
                        41           110                86
                        46           113                87
                        48           114                88
                        49           115                89
                        51           156                90
                        52           158
                        53           402
                        54           551
                        55           647
                        56           649
                        57           760
                        58          3157
                        59
                        60
                        61
                        64
                        65
                        66
                        67
                        68
                        69
                        71
                        72
                        76
                        77
                        80
                        81
                        82
                        83


*********************************************************************************************************
Total TRNSYS Calculation Time:                      57910.6797 Seconds
